Version 4
SHEET 1 3076 3372
WIRE -96 -80 -128 -80
WIRE 176 -80 176 -144
WIRE 176 -80 -96 -80
WIRE 272 -80 176 -80
WIRE 320 -80 272 -80
WIRE 640 -80 320 -80
WIRE 672 -80 640 -80
WIRE -96 -16 -96 -80
WIRE 272 -16 272 -80
WIRE 640 -16 640 -80
WIRE -128 32 -128 -80
WIRE -96 32 -128 32
WIRE 320 32 320 -80
WIRE 320 32 272 32
WIRE 672 32 672 -80
WIRE 672 32 640 32
WIRE 144 64 -48 64
WIRE 224 64 144 64
WIRE 592 64 352 64
WIRE -96 112 -96 80
WIRE 48 112 -96 112
WIRE 144 112 144 64
WIRE 272 112 272 80
WIRE 272 112 144 112
WIRE 352 112 352 64
WIRE 352 112 272 112
WIRE -96 144 -96 112
WIRE 272 144 272 112
WIRE 48 160 48 112
WIRE 48 160 -48 160
WIRE 224 160 48 160
WIRE 640 160 640 80
WIRE 784 160 640 160
WIRE -96 192 -128 192
WIRE 288 192 272 192
WIRE 640 240 640 160
WIRE 272 256 272 240
WIRE 640 352 640 320
WIRE 784 352 640 352
WIRE 272 368 272 336
WIRE 272 368 192 368
WIRE 400 368 272 368
WIRE 640 384 640 352
WIRE 192 400 192 368
WIRE 400 400 400 368
WIRE -96 416 -96 240
WIRE 704 432 640 432
WIRE 192 448 144 448
WIRE 288 448 256 448
WIRE 336 448 288 448
WIRE 448 448 400 448
WIRE -160 464 -208 464
WIRE -16 464 -96 464
WIRE -208 592 -208 464
WIRE -96 592 -96 512
WIRE -96 592 -208 592
WIRE -16 592 -16 464
WIRE -16 592 -96 592
WIRE 144 592 144 448
WIRE 144 592 -16 592
WIRE 192 592 192 496
WIRE 192 592 144 592
WIRE 288 592 288 448
WIRE 288 592 192 592
WIRE 400 592 400 496
WIRE 400 592 288 592
WIRE 448 592 448 448
WIRE 448 592 400 592
WIRE 576 592 576 432
WIRE 576 592 448 592
WIRE 640 592 640 480
WIRE 640 592 576 592
WIRE 704 592 704 432
WIRE 704 592 640 592
WIRE 288 640 288 592
FLAG 176 -224 0
FLAG 288 640 0
FLAG 784 160 Vref
FLAG 288 192 0
FLAG -128 192 0
FLAG 784 352 Ctat
FLAG 272 -80 vdd
SYMBOL pmos4 -48 -16 M0
SYMATTR InstName M1
SYMATTR Value2 l=180n w=1.22u
SYMBOL pmos4 224 -16 R0
SYMATTR InstName M2
SYMATTR Value2 l=180n w=1u
SYMBOL pmos4 592 -16 R0
SYMATTR InstName M3
SYMATTR Value2 l=180n w=1u
SYMBOL res 256 240 R0
SYMATTR InstName R1
SYMATTR Value 45
SYMBOL res 624 224 R0
SYMATTR InstName R2
SYMATTR Value 10.7k
SYMBOL voltage 176 -128 R180
WINDOW 0 24 96 Left 2
WINDOW 3 24 16 Left 2
WINDOW 123 0 0 Left 0
WINDOW 39 0 0 Left 0
SYMATTR InstName VDD
SYMATTR Value 1.8
SYMBOL nmos4 -48 240 R180
SYMATTR InstName M4
SYMATTR Value2 l=180n w=390n
SYMBOL nmos4 224 240 M180
WINDOW 0 61 14 Left 2
WINDOW 3 59 82 Left 2
SYMATTR InstName M5
SYMATTR Value2 l=180n w=500n
SYMBOL pnp4 -160 512 M180
SYMATTR InstName Q1
SYMATTR Value 2N2907
SYMBOL pnp4 256 496 R180
SYMATTR InstName Q2
SYMATTR Value 2N2907
SYMBOL pnp4 336 496 M180
SYMATTR InstName Q3
SYMATTR Value 2N2907
SYMBOL pnp4 576 480 M180
SYMATTR InstName Q4
SYMATTR Value 2N2907
TEXT 1088 -88 Left 2 !.model NMOS NMOS\n+Level = 49\n \n+Lint = 4.e-08 Tox = 4.e-09 \n+Vth0 = 0.3999 Rdsw = 250 \n \n+lmin=1.8e-7 lmax=1.8e-7 wmin=1.8e-7 wmax=1.0e-4 Tref=27.0 version =3.1\n+Xj= 6.0000000E-08         Nch= 5.9500000E+17 \n+lln= 1.0000000            lwn= 1.0000000              wln= 0.00\n+wwn= 0.00                 ll= 0.00\n+lw= 0.00                  lwl= 0.00                   wint= 0.00\n+wl= 0.00                  ww= 0.00                    wwl= 0.00\n+Mobmod=  1                binunit= 2                  xl=  0\n+xw=  0                    binflag=  0\n+Dwg= 0.00                 Dwb= 0.00 \n \n+K1= 0.5613000               K2= 1.0000000E-02 \n+K3= 0.00                  Dvt0= 8.0000000             Dvt1= 0.7500000 \n+Dvt2= 8.0000000E-03       Dvt0w= 0.00                 Dvt1w= 0.00 \n+Dvt2w= 0.00               Nlx= 1.6500000E-07          W0= 0.00 \n+K3b= 0.00                 Ngate= 5.0000000E+20 \n \n+Vsat= 1.3800000E+05       Ua= -7.0000000E-10          Ub= 3.5000000E-18 \n+Uc= -5.2500000E-11        Prwb= 0.00 \n+Prwg= 0.00                Wr= 1.0000000               U0= 3.5000000E-02 \n+A0= 1.1000000             Keta= 4.0000000E-02         A1= 0.00 \n+A2= 1.0000000             Ags= -1.0000000E-02         B0= 0.00 \n+B1= 0.00 \n \n+Voff= -0.12350000          NFactor= 0.9000000          Cit= 0.00 \n+Cdsc= 0.00                Cdscb= 0.00                 Cdscd= 0.00 \n+Eta0= 0.2200000           Etab= 0.00                  Dsub= 0.8000000 \n \n+Pclm= 5.0000000E-02       Pdiblc1= 1.2000000E-02      Pdiblc2= 7.5000000E-03 \n+Pdiblcb= -1.3500000E-02   Drout= 1.7999999E-02        Pscbe1= 8.6600000E+08 \n+Pscbe2= 1.0000000E-20     Pvag= -0.2800000            Delta= 1.0000000E-02 \n+Alpha0= 0.00              Beta0= 30.0000000 \n \n+kt1= -0.3700000           kt2= -4.0000000E-02         At= 5.5000000E+04 \n+Ute= -1.4800000           Ua1= 9.5829000E-10          Ub1= -3.3473000E-19 \n+Uc1= 0.00                 Kt1l= 4.0000000E-09         Prt= 0.00 \n \n+Cj= 0.00365               Mj= 0.54                    Pb= 0.982\n+Cjsw= 7.9E-10             Mjsw= 0.31                  Php= 0.841\n+Cta= 0                    Ctp= 0                      Pta= 0\n+Ptp= 0                    JS=1.50E-08                 JSW=2.50E-13\n+N=1.0                     Xti=3.0                     Cgdo=2.786E-10\n+Cgso=2.786E-10            Cgbo=0.0E+00                Capmod= 2\n+NQSMOD= 0                 Elm= 5                      Xpart= 1\n+Cgsl= 1.6E-10             Cgdl= 1.6E-10               Ckappa= 2.886\n+Cf= 1.069e-10             Clc= 0.0000001              Cle= 0.6\n+Dlc= 4E-08                Dwc= 0                      Vfbcv= -1
TEXT -216 720 Left 2 !.dc temp -40 140 10
TEXT 2136 -96 Left 2 !.model PMOS PMOS\n+Level = 49\n \n+Lint = 3.e-08 Tox = 4.2e-09 \n+Vth0 = -0.42 Rdsw = 450 \n \n+lmin=1.8e-7 lmax=1.8e-7 wmin=1.8e-7 wmax=1.0e-4 Tref=27.0 version =3.1\n+Xj= 7.0000000E-08         Nch= 5.9200000E+17 \n+lln= 1.0000000            lwn= 1.0000000              wln= 0.00\n+wwn= 0.00                 ll= 0.00\n+lw= 0.00                  lwl= 0.00                   wint= 0.00\n+wl= 0.00                  ww= 0.00                    wwl= 0.00\n+Mobmod=  1                binunit= 2                  xl= 0.00\n+xw= 0.00                  \n+binflag=  0               Dwg= 0.00                   Dwb= 0.00 \n \n+ACM= 0                    ldif=0.00                   hdif=0.00\n+rsh= 0                    rd= 0                       rs= 0\n+rsc= 0                    rdc= 0\n \n+K1= 0.5560000             K2= 0.00 \n+K3= 0.00                  Dvt0= 11.2000000            Dvt1= 0.7200000 \n+Dvt2= -1.0000000E-02      Dvt0w= 0.00                 Dvt1w= 0.00 \n+Dvt2w= 0.00               Nlx= 9.5000000E-08          W0= 0.00 \n+K3b= 0.00                 Ngate= 5.0000000E+20 \n \n+Vsat= 1.0500000E+05       Ua= -1.2000000E-10          Ub= 1.0000000E-18 \n+Uc= -2.9999999E-11        Prwb= 0.00 \n+Prwg= 0.00                Wr= 1.0000000               U0= 8.0000000E-03 \n+A0= 2.1199999             Keta= 2.9999999E-02         A1= 0.00 \n+A2= 0.4000000             Ags= -0.1000000             B0= 0.00 \n+B1= 0.00 \n \n+Voff= -6.40000000E-02      NFactor= 1.4000000          Cit= 0.00 \n+Cdsc= 0.00                Cdscb= 0.00                 Cdscd= 0.00 \n+Eta0= 8.5000000           Etab= 0.00                  Dsub= 2.8000000 \n \n+Pclm= 2.0000000           Pdiblc1= 0.1200000          Pdiblc2= 8.0000000E-05 \n+Pdiblcb= 0.1450000        Drout= 5.0000000E-02        Pscbe1= 1.0000000E-20 \n+Pscbe2= 1.0000000E-20     Pvag= -6.0000000E-02        Delta= 1.0000000E-02 \n+Alpha0= 0.00              Beta0= 30.0000000 \n \n+kt1= -0.3700000           kt2= -4.0000000E-02         At= 5.5000000E+04 \n+Ute= -1.4800000           Ua1= 9.5829000E-10          Ub1= -3.3473000E-19 \n+Uc1= 0.00                 Kt1l= 4.0000000E-09         Prt= 0.00 \n \n+Cj= 0.00138               Mj= 1.05                    Pb= 1.24\n+Cjsw= 1.44E-09            Mjsw= 0.43                  Php= 0.841\n+Cta= 0.00093              Ctp= 0                      Pta= 0.00153\n+Ptp= 0                    JS=1.50E-08                 JSW=2.50E-13\n+N=1.0                     Xti=3.0                     Cgdo=2.786E-10\n+Cgso=2.786E-10            Cgbo=0.0E+00                Capmod= 2\n+NQSMOD= 0                 Elm= 5                      Xpart= 1\n+Cgsl= 1.6E-10             Cgdl= 1.6E-10               Ckappa= 2.886\n+Cf= 1.058e-10             Clc= 0.0000001              Cle= 0.6\n+Dlc= 3E-08                Dwc= 0                      Vfbcv= -1
TEXT -200 792 Left 2 !;dc vdd 0 2 0.05
